CM
CE
GW 1 1 0.100  0.000  0.200 0.099  0.017  0.200  0.0025
GW 1 1 0.099  0.017  0.200 0.094  0.034  0.200  0.0025
GW 1 1 0.094  0.034  0.200 0.087  0.049  0.200  0.0025
GW 1 1 0.087  0.049  0.200 0.077  0.063  0.200  0.0025
GW 1 1 0.077  0.063  0.200 0.065  0.076  0.200  0.0025
GW 1 1 0.065  0.076  0.200 0.051  0.086  0.200  0.0025
GW 1 1 0.051  0.086  0.200 0.036  0.093  0.200  0.0025
GW 1 1 0.036  0.093  0.200 0.020  0.098  0.200  0.0025
GW 1 1 0.020  0.098  0.200 0.002  0.100  0.200  0.0025
GW 1 1 0.002  0.100  0.200 -0.015  0.099  0.200  0.0025
GW 1 1 -0.015  0.099  0.200 -0.031  0.095  0.200  0.0025
GW 1 1 -0.031  0.095  0.200 -0.047  0.088  0.200  0.0025
GW 1 1 -0.047  0.088  0.200 -0.061  0.079  0.200  0.0025
GW 1 1 -0.061  0.079  0.200 -0.074  0.067  0.200  0.0025
GW 1 1 -0.074  0.067  0.200 -0.084  0.054  0.200  0.0025
GW 1 1 -0.084  0.054  0.200 -0.092  0.038  0.200  0.0025
GW 1 1 -0.092  0.038  0.200 -0.098  0.022  0.200  0.0025
GW 1 1 -0.098  0.022  0.200 -0.100  0.005  0.200  0.0025
GW 1 1 -0.100  0.005  0.200 -0.099  -0.012  0.200  0.0025
GW 1 1 -0.099  -0.012  0.200 -0.096  -0.029  0.200  0.0025
GW 1 1 -0.096  -0.029  0.200 -0.089  -0.045  0.200  0.0025
GW 1 1 -0.089  -0.045  0.200 -0.080  -0.059  0.200  0.0025
GW 1 1 -0.080  -0.059  0.200 -0.069  -0.072  0.200  0.0025
GW 1 1 -0.069  -0.072  0.200 -0.056  -0.083  0.200  0.0025
GW 1 1 -0.056  -0.083  0.200 -0.041  -0.091  0.200  0.0025
GW 1 1 -0.041  -0.091  0.200 -0.024  -0.097  0.200  0.0025
GW 1 1 -0.024  -0.097  0.200 -0.007  -0.100  0.200  0.0025
GW 1 1 -0.007  -0.100  0.200 0.010  -0.100  0.200  0.0025
GW 1 1 0.010  -0.100  0.200 0.027  -0.096  0.200  0.0025
GW 1 1 0.027  -0.096  0.200 0.043  -0.090  0.200  0.0025
GW 1 1 0.043  -0.090  0.200 0.057  -0.082  0.200  0.0025
GW 1 1 0.057  -0.082  0.200 0.071  -0.071  0.200  0.0025
GW 1 1 0.071  -0.071  0.200 0.082  -0.058  0.200  0.0025
GW 1 1 0.082  -0.058  0.200 0.090  -0.043  0.200  0.0025
GW 1 1 0.090  -0.043  0.200 0.096  -0.027  0.200  0.0025
GW 999 1 0.096  -0.027  0.200 0.100  -0.010  0.200  0.0025
GW 2 1 0.100  0.000  0.000 0.099  0.017  0.000  0.0025
GW 2 1 0.099  0.017  0.000 0.094  0.034  0.000  0.0025
GW 2 1 0.094  0.034  0.000 0.087  0.049  0.000  0.0025
GW 2 1 0.087  0.049  0.000 0.077  0.063  0.000  0.0025
GW 2 1 0.077  0.063  0.000 0.065  0.076  0.000  0.0025
GW 2 1 0.065  0.076  0.000 0.051  0.086  0.000  0.0025
GW 2 1 0.051  0.086  0.000 0.036  0.093  0.000  0.0025
GW 2 1 0.036  0.093  0.000 0.020  0.098  0.000  0.0025
GW 2 1 0.020  0.098  0.000 0.002  0.100  0.000  0.0025
GW 2 1 0.002  0.100  0.000 -0.015  0.099  0.000  0.0025
GW 2 1 -0.015  0.099  0.000 -0.031  0.095  0.000  0.0025
GW 2 1 -0.031  0.095  0.000 -0.047  0.088  0.000  0.0025
GW 2 1 -0.047  0.088  0.000 -0.061  0.079  0.000  0.0025
GW 2 1 -0.061  0.079  0.000 -0.074  0.067  0.000  0.0025
GW 2 1 -0.074  0.067  0.000 -0.084  0.054  0.000  0.0025
GW 2 1 -0.084  0.054  0.000 -0.092  0.038  0.000  0.0025
GW 2 1 -0.092  0.038  0.000 -0.098  0.022  0.000  0.0025
GW 2 1 -0.098  0.022  0.000 -0.100  0.005  0.000  0.0025
GW 2 1 -0.100  0.005  0.000 -0.099  -0.012  0.000  0.0025
GW 2 1 -0.099  -0.012  0.000 -0.096  -0.029  0.000  0.0025
GW 2 1 -0.096  -0.029  0.000 -0.089  -0.045  0.000  0.0025
GW 2 1 -0.089  -0.045  0.000 -0.080  -0.059  0.000  0.0025
GW 2 1 -0.080  -0.059  0.000 -0.069  -0.072  0.000  0.0025
GW 2 1 -0.069  -0.072  0.000 -0.056  -0.083  0.000  0.0025
GW 2 1 -0.056  -0.083  0.000 -0.041  -0.091  0.000  0.0025
GW 2 1 -0.041  -0.091  0.000 -0.024  -0.097  0.000  0.0025
GW 2 1 -0.024  -0.097  0.000 -0.007  -0.100  0.000  0.0025
GW 2 1 -0.007  -0.100  0.000 0.010  -0.100  0.000  0.0025
GW 2 1 0.010  -0.100  0.000 0.027  -0.096  0.000  0.0025
GW 2 1 0.027  -0.096  0.000 0.043  -0.090  0.000  0.0025
GW 2 1 0.043  -0.090  0.000 0.057  -0.082  0.000  0.0025
GW 2 1 0.057  -0.082  0.000 0.071  -0.071  0.000  0.0025
GW 2 1 0.071  -0.071  0.000 0.082  -0.058  0.000  0.0025
GW 2 1 0.082  -0.058  0.000 0.090  -0.043  0.000  0.0025
GW 2 1 0.090  -0.043  0.000 0.096  -0.027  0.000  0.0025
GW 2 1 0.096  -0.027  0.000 0.100  -0.010  0.000  0.0025
GW 3 4 0.100  0.000  0.000 0.100  0.000  0.200  0.0025
GW 4 4 0.100  -0.010  0.000 0.100  -0.010  0.200  0.0025
GM 0 0 0 0 0 0 0 8.000
GE -1
GN 2 0 0 0 11.000 0.010 
EX 0 999 1 0 1 0
FR 0 1 0 0 144.200 0
RP 0 19 37 1003 0 0 5 10.0
EN