CM
CE
GW 1 2 0.500  1.280  0.825 0.500  1.280  0.929  0.005
GW 999 1 0.500  1.280  0.929 0.500  1.280  0.981  0.005
GW 1 2 0.500  1.280  0.981 0.500  1.280  1.075  0.005
GW 2 4 -1.000  0.000  0.250 -1.000  0.000  1.050  0.0005
GW 2 4 -1.000  0.200  0.250 -1.000  0.200  1.050  0.0005
GW 2 4 -1.000  0.400  0.250 -1.000  0.400  1.050  0.0005
GW 2 4 -1.000  0.600  0.250 -1.000  0.600  1.050  0.0005
GW 2 4 -1.000  0.800  0.250 -1.000  0.800  1.050  0.0005
GW 2 4 -1.000  1.000  0.250 -1.000  1.000  1.050  0.0005
GW 2 4 -1.000  1.200  0.250 -1.000  1.200  1.050  0.0005
GW 2 4 -1.000  1.400  0.250 -1.000  1.400  1.050  0.0005
GW 2 4 -1.000  1.600  0.250 -1.000  1.600  1.050  0.0005
GW 2 8 -1.000  0.000  0.250 -1.000  1.600  0.250  0.0005
GW 2 8 -1.000  0.000  0.450 -1.000  1.600  0.450  0.0005
GW 2 8 -1.000  0.000  0.650 -1.000  1.600  0.650  0.0005
GW 2 8 -1.000  0.000  0.850 -1.000  1.600  0.850  0.0005
GW 2 8 -1.000  0.000  1.050 -1.000  1.600  1.050  0.0005
GW 3 4 1.000  0.000  0.250 1.000  0.000  1.050  0.0005
GW 3 4 1.000  0.200  0.250 1.000  0.200  1.050  0.0005
GW 3 4 1.000  0.400  0.250 1.000  0.400  1.050  0.0005
GW 3 4 1.000  0.600  0.250 1.000  0.600  1.050  0.0005
GW 3 4 1.000  0.800  0.250 1.000  0.800  1.050  0.0005
GW 3 4 1.000  1.000  0.250 1.000  1.000  1.050  0.0005
GW 3 4 1.000  1.200  0.250 1.000  1.200  1.050  0.0005
GW 3 4 1.000  1.400  0.250 1.000  1.400  1.050  0.0005
GW 3 4 1.000  1.600  0.250 1.000  1.600  1.050  0.0005
GW 3 8 1.000  0.000  0.250 1.000  1.600  0.250  0.0005
GW 3 8 1.000  0.000  0.450 1.000  1.600  0.450  0.0005
GW 3 8 1.000  0.000  0.650 1.000  1.600  0.650  0.0005
GW 3 8 1.000  0.000  0.850 1.000  1.600  0.850  0.0005
GW 3 8 1.000  0.000  1.050 1.000  1.600  1.050  0.0005
GW 4 4 0.800  1.600  0.250 0.800  1.600  1.050  0.0005
GW 4 4 0.600  1.600  0.250 0.600  1.600  1.050  0.0005
GW 4 4 0.400  1.600  0.250 0.400  1.600  1.050  0.0005
GW 4 4 0.200  1.600  0.250 0.200  1.600  1.050  0.0005
GW 4 4 0.000  1.600  0.250 0.000  1.600  1.050  0.0005
GW 4 4 -0.200  1.600  0.250 -0.200  1.600  1.050  0.0005
GW 4 4 -0.400  1.600  0.250 -0.400  1.600  1.050  0.0005
GW 4 4 -0.600  1.600  0.250 -0.600  1.600  1.050  0.0005
GW 4 4 -0.800  1.600  0.250 -0.800  1.600  1.050  0.0005
GW 4 10 1.000  1.600  0.250 -1.000  1.600  0.250  0.0005
GW 4 10 1.000  1.600  0.450 -1.000  1.600  0.450  0.0005
GW 4 10 1.000  1.600  0.650 -1.000  1.600  0.650  0.0005
GW 4 10 1.000  1.600  0.850 -1.000  1.600  0.850  0.0005
GW 4 10 1.000  1.600  1.050 -1.000  1.600  1.050  0.0005
GW 5 4 0.800  -0.000  0.250 0.800  -0.000  1.050  0.0005
GW 5 4 0.600  -0.000  0.250 0.600  -0.000  1.050  0.0005
GW 5 4 0.400  -0.000  0.250 0.400  -0.000  1.050  0.0005
GW 5 4 0.200  -0.000  0.250 0.200  -0.000  1.050  0.0005
GW 5 4 0.000  0.000  0.250 0.000  0.000  1.050  0.0005
GW 5 4 -0.200  0.000  0.250 -0.200  0.000  1.050  0.0005
GW 5 4 -0.400  0.000  0.250 -0.400  0.000  1.050  0.0005
GW 5 4 -0.600  0.000  0.250 -0.600  0.000  1.050  0.0005
GW 5 4 -0.800  0.000  0.250 -0.800  0.000  1.050  0.0005
GW 5 10 1.000  -0.000  0.250 -1.000  0.000  0.250  0.0005
GW 5 10 1.000  -0.000  0.450 -1.000  0.000  0.450  0.0005
GW 5 10 1.000  -0.000  0.650 -1.000  0.000  0.650  0.0005
GW 5 10 1.000  -0.000  0.850 -1.000  0.000  0.850  0.0005
GW 5 10 1.000  -0.000  1.050 -1.000  0.000  1.050  0.0005
GW 6 10 -1.000  0.200  0.250 1.000  0.200  0.250  0.0005
GW 6 10 -1.000  0.400  0.250 1.000  0.400  0.250  0.0005
GW 6 10 -1.000  0.600  0.250 1.000  0.600  0.250  0.0005
GW 6 10 -1.000  0.800  0.250 1.000  0.800  0.250  0.0005
GW 6 10 -1.000  1.000  0.250 1.000  1.000  0.250  0.0005
GW 6 10 -1.000  1.200  0.250 1.000  1.200  0.250  0.0005
GW 6 10 -1.000  1.400  0.250 1.000  1.400  0.250  0.0005
GW 6 8 -0.800  0.000  0.250 -0.800  1.600  0.250  0.0005
GW 6 8 -0.600  0.000  0.250 -0.600  1.600  0.250  0.0005
GW 6 8 -0.400  0.000  0.250 -0.400  1.600  0.250  0.0005
GW 6 8 -0.200  0.000  0.250 -0.200  1.600  0.250  0.0005
GW 6 8 0.000  0.000  0.250 0.000  1.600  0.250  0.0005
GW 6 8 0.200  0.000  0.250 0.200  1.600  0.250  0.0005
GW 6 8 0.400  0.000  0.250 0.400  1.600  0.250  0.0005
GW 6 8 0.600  0.000  0.250 0.600  1.600  0.250  0.0005
GW 6 8 0.800  0.000  0.250 0.800  1.600  0.250  0.0005
GW 7 10 -1.000  0.200  1.750 1.000  0.200  1.750  0.0005
GW 7 10 -1.000  0.400  1.750 1.000  0.400  1.750  0.0005
GW 7 10 -1.000  0.600  1.750 1.000  0.600  1.750  0.0005
GW 7 10 -1.000  0.800  1.750 1.000  0.800  1.750  0.0005
GW 7 10 -1.000  1.000  1.750 1.000  1.000  1.750  0.0005
GW 7 10 -1.000  1.200  1.750 1.000  1.200  1.750  0.0005
GW 7 10 -1.000  1.400  1.750 1.000  1.400  1.750  0.0005
GW 7 6 -1.000  0.200  1.750 -1.000  1.400  1.750  0.0005
GW 7 6 -0.800  0.200  1.750 -0.800  1.400  1.750  0.0005
GW 7 6 -0.600  0.200  1.750 -0.600  1.400  1.750  0.0005
GW 7 6 -0.400  0.200  1.750 -0.400  1.400  1.750  0.0005
GW 7 6 -0.200  0.200  1.750 -0.200  1.400  1.750  0.0005
GW 7 6 0.000  0.200  1.750 0.000  1.400  1.750  0.0005
GW 7 6 0.200  0.200  1.750 0.200  1.400  1.750  0.0005
GW 7 6 0.400  0.200  1.750 0.400  1.400  1.750  0.0005
GW 7 6 0.600  0.200  1.750 0.600  1.400  1.750  0.0005
GW 7 6 0.800  0.200  1.750 0.800  1.400  1.750  0.0005
GW 7 6 1.000  0.200  1.750 1.000  1.400  1.750  0.0005
GM 0 0 0 0 0 0 0 0.000
GE -1
GN 2 0 0 0 11.000 0.010 
EK
LD 5 0 0 0 58000000 0.0 0.0
LD 5 2 0 0 1000000000000.0 0.0 0.0
LD 5 3 0 0 1000000000000.0 0.0 0.0
LD 5 4 0 0 1000000000000.0 0.0 0.0
LD 5 5 0 0 1000000000000.0 0.0 0.0
LD 5 6 0 0 1000000000000.0 0.0 0.0
LD 5 7 0 0 1000000000000.0 0.0 0.0
EX 0 999 1 0 1 0
FR 0 1 0 0 144.200 0
RP 0 19 37 1003 0 0 5 10.0
EN