CM
CE
GW 1 9 0.000  0.000  -0.520 0.000  0.000  -0.052  0.005
GW 999 1 0.000  0.000  -0.052 0.000  0.000  0.000  0.005
GW 1 9 0.000  0.000  0.000 0.000  0.000  0.520  0.005
GM 0 0 0 0 0 0 0 8.000
GE -1
GN 2 0 0 0 11.000 0.010 
EK
EX 0 999 1 0 1 0
FR 0 1 0 0 144.200 0
RP 0 91 361 1003 0 0 1 1.0
EN