CM
CE
GW 1 9 -1.000  0.000  -0.520 -1.000  0.000  -0.052  0.005
GW 999 1 -1.000  0.000  -0.052 -1.000  0.000  0.000  0.005
GW 1 9 -1.000  0.000  0.000 -1.000  0.000  0.520  0.005
GW 2 10 0.000  -0.500  -0.250 0.000  -0.500  0.250  0.0005
GW 2 10 0.000  -0.450  -0.250 0.000  -0.450  0.250  0.0005
GW 2 10 0.000  -0.400  -0.250 0.000  -0.400  0.250  0.0005
GW 2 10 0.000  -0.350  -0.250 0.000  -0.350  0.250  0.0005
GW 2 10 0.000  -0.300  -0.250 0.000  -0.300  0.250  0.0005
GW 2 10 0.000  -0.250  -0.250 0.000  -0.250  0.250  0.0005
GW 2 10 0.000  -0.200  -0.250 0.000  -0.200  0.250  0.0005
GW 2 10 0.000  -0.150  -0.250 0.000  -0.150  0.250  0.0005
GW 2 10 0.000  -0.100  -0.250 0.000  -0.100  0.250  0.0005
GW 2 10 0.000  -0.050  -0.250 0.000  -0.050  0.250  0.0005
GW 2 10 0.000  0.000  -0.250 0.000  0.000  0.250  0.0005
GW 2 10 0.000  0.050  -0.250 0.000  0.050  0.250  0.0005
GW 2 10 0.000  0.100  -0.250 0.000  0.100  0.250  0.0005
GW 2 10 0.000  0.150  -0.250 0.000  0.150  0.250  0.0005
GW 2 10 0.000  0.200  -0.250 0.000  0.200  0.250  0.0005
GW 2 10 0.000  0.250  -0.250 0.000  0.250  0.250  0.0005
GW 2 10 0.000  0.300  -0.250 0.000  0.300  0.250  0.0005
GW 2 10 0.000  0.350  -0.250 0.000  0.350  0.250  0.0005
GW 2 10 0.000  0.400  -0.250 0.000  0.400  0.250  0.0005
GW 2 10 0.000  0.450  -0.250 0.000  0.450  0.250  0.0005
GW 2 10 0.000  0.500  -0.250 0.000  0.500  0.250  0.0005
GW 2 20 0.000  -0.500  -0.250 0.000  0.500  -0.250  0.0005
GW 2 20 0.000  -0.500  -0.200 0.000  0.500  -0.200  0.0005
GW 2 20 0.000  -0.500  -0.150 0.000  0.500  -0.150  0.0005
GW 2 20 0.000  -0.500  -0.100 0.000  0.500  -0.100  0.0005
GW 2 20 0.000  -0.500  -0.050 0.000  0.500  -0.050  0.0005
GW 2 20 0.000  -0.500  0.000 0.000  0.500  0.000  0.0005
GW 2 20 0.000  -0.500  0.050 0.000  0.500  0.050  0.0005
GW 2 20 0.000  -0.500  0.100 0.000  0.500  0.100  0.0005
GW 2 20 0.000  -0.500  0.150 0.000  0.500  0.150  0.0005
GW 2 20 0.000  -0.500  0.200 0.000  0.500  0.200  0.0005
GW 2 20 0.000  -0.500  0.250 0.000  0.500  0.250  0.0005
GE 0
EK
EX 0 999 1 0 1 0
FR 0 1 0 0 144.200 0
RP 0 37 37 1003 0 0 5 10.0
EN