CM
CE
GW 1 1 0.104  0.000  0.164 0.103  0.018  0.164  0.002402992736811996
GW 1 1 0.103  0.018  0.164 0.098  0.035  0.164  0.002402992736811996
GW 1 1 0.098  0.035  0.164 0.091  0.052  0.164  0.002402992736811996
GW 1 1 0.091  0.052  0.164 0.080  0.066  0.164  0.002402992736811996
GW 1 1 0.080  0.066  0.164 0.068  0.079  0.164  0.002402992736811996
GW 1 1 0.068  0.079  0.164 0.053  0.090  0.164  0.002402992736811996
GW 1 1 0.053  0.090  0.164 0.037  0.097  0.164  0.002402992736811996
GW 1 1 0.037  0.097  0.164 0.020  0.102  0.164  0.002402992736811996
GW 1 1 0.020  0.102  0.164 0.002  0.104  0.164  0.002402992736811996
GW 1 1 0.002  0.104  0.164 -0.016  0.103  0.164  0.002402992736811996
GW 1 1 -0.016  0.103  0.164 -0.033  0.099  0.164  0.002402992736811996
GW 1 1 -0.033  0.099  0.164 -0.050  0.092  0.164  0.002402992736811996
GW 1 1 -0.050  0.092  0.164 -0.065  0.082  0.164  0.002402992736811996
GW 1 1 -0.065  0.082  0.164 -0.078  0.070  0.164  0.002402992736811996
GW 1 1 -0.078  0.070  0.164 -0.089  0.055  0.164  0.002402992736811996
GW 1 1 -0.089  0.055  0.164 -0.097  0.039  0.164  0.002402992736811996
GW 1 1 -0.097  0.039  0.164 -0.102  0.022  0.164  0.002402992736811996
GW 1 1 -0.102  0.022  0.164 -0.104  0.004  0.164  0.002402992736811996
GW 1 1 -0.104  0.004  0.164 -0.103  -0.014  0.164  0.002402992736811996
GW 1 1 -0.103  -0.014  0.164 -0.100  -0.031  0.164  0.002402992736811996
GW 1 1 -0.100  -0.031  0.164 -0.093  -0.048  0.164  0.002402992736811996
GW 1 1 -0.093  -0.048  0.164 -0.083  -0.063  0.164  0.002402992736811996
GW 1 1 -0.083  -0.063  0.164 -0.071  -0.076  0.164  0.002402992736811996
GW 1 1 -0.071  -0.076  0.164 -0.057  -0.087  0.164  0.002402992736811996
GW 1 1 -0.057  -0.087  0.164 -0.041  -0.096  0.164  0.002402992736811996
GW 1 1 -0.041  -0.096  0.164 -0.024  -0.101  0.164  0.002402992736811996
GW 1 1 -0.024  -0.101  0.164 -0.006  -0.104  0.164  0.002402992736811996
GW 1 1 -0.006  -0.104  0.164 0.012  -0.104  0.164  0.002402992736811996
GW 1 1 0.012  -0.104  0.164 0.029  -0.100  0.164  0.002402992736811996
GW 1 1 0.029  -0.100  0.164 0.046  -0.094  0.164  0.002402992736811996
GW 1 1 0.046  -0.094  0.164 0.061  -0.084  0.164  0.002402992736811996
GW 1 1 0.061  -0.084  0.164 0.075  -0.073  0.164  0.002402992736811996
GW 1 1 0.075  -0.073  0.164 0.086  -0.059  0.164  0.002402992736811996
GW 1 1 0.086  -0.059  0.164 0.095  -0.043  0.164  0.002402992736811996
GW 1 1 0.095  -0.043  0.164 0.101  -0.026  0.164  0.002402992736811996
GW 999 1 0.101  -0.026  0.164 0.104  -0.008  0.164  0.002402992736811996
GW 2 1 0.104  0.000  0.000 0.103  0.018  0.000  0.002402992736811996
GW 2 1 0.103  0.018  0.000 0.098  0.035  0.000  0.002402992736811996
GW 2 1 0.098  0.035  0.000 0.091  0.052  0.000  0.002402992736811996
GW 2 1 0.091  0.052  0.000 0.080  0.066  0.000  0.002402992736811996
GW 2 1 0.080  0.066  0.000 0.068  0.079  0.000  0.002402992736811996
GW 2 1 0.068  0.079  0.000 0.053  0.090  0.000  0.002402992736811996
GW 2 1 0.053  0.090  0.000 0.037  0.097  0.000  0.002402992736811996
GW 2 1 0.037  0.097  0.000 0.020  0.102  0.000  0.002402992736811996
GW 2 1 0.020  0.102  0.000 0.002  0.104  0.000  0.002402992736811996
GW 2 1 0.002  0.104  0.000 -0.016  0.103  0.000  0.002402992736811996
GW 2 1 -0.016  0.103  0.000 -0.033  0.099  0.000  0.002402992736811996
GW 2 1 -0.033  0.099  0.000 -0.050  0.092  0.000  0.002402992736811996
GW 2 1 -0.050  0.092  0.000 -0.065  0.082  0.000  0.002402992736811996
GW 2 1 -0.065  0.082  0.000 -0.078  0.070  0.000  0.002402992736811996
GW 2 1 -0.078  0.070  0.000 -0.089  0.055  0.000  0.002402992736811996
GW 2 1 -0.089  0.055  0.000 -0.097  0.039  0.000  0.002402992736811996
GW 2 1 -0.097  0.039  0.000 -0.102  0.022  0.000  0.002402992736811996
GW 2 1 -0.102  0.022  0.000 -0.104  0.004  0.000  0.002402992736811996
GW 2 1 -0.104  0.004  0.000 -0.103  -0.014  0.000  0.002402992736811996
GW 2 1 -0.103  -0.014  0.000 -0.100  -0.031  0.000  0.002402992736811996
GW 2 1 -0.100  -0.031  0.000 -0.093  -0.048  0.000  0.002402992736811996
GW 2 1 -0.093  -0.048  0.000 -0.083  -0.063  0.000  0.002402992736811996
GW 2 1 -0.083  -0.063  0.000 -0.071  -0.076  0.000  0.002402992736811996
GW 2 1 -0.071  -0.076  0.000 -0.057  -0.087  0.000  0.002402992736811996
GW 2 1 -0.057  -0.087  0.000 -0.041  -0.096  0.000  0.002402992736811996
GW 2 1 -0.041  -0.096  0.000 -0.024  -0.101  0.000  0.002402992736811996
GW 2 1 -0.024  -0.101  0.000 -0.006  -0.104  0.000  0.002402992736811996
GW 2 1 -0.006  -0.104  0.000 0.012  -0.104  0.000  0.002402992736811996
GW 2 1 0.012  -0.104  0.000 0.029  -0.100  0.000  0.002402992736811996
GW 2 1 0.029  -0.100  0.000 0.046  -0.094  0.000  0.002402992736811996
GW 2 1 0.046  -0.094  0.000 0.061  -0.084  0.000  0.002402992736811996
GW 2 1 0.061  -0.084  0.000 0.075  -0.073  0.000  0.002402992736811996
GW 2 1 0.075  -0.073  0.000 0.086  -0.059  0.000  0.002402992736811996
GW 2 1 0.086  -0.059  0.000 0.095  -0.043  0.000  0.002402992736811996
GW 2 1 0.095  -0.043  0.000 0.101  -0.026  0.000  0.002402992736811996
GW 2 1 0.101  -0.026  0.000 0.104  -0.008  0.000  0.002402992736811996
GW 3 4 0.104  0.000  0.000 0.104  0.000  0.164  0.002402992736811996
GW 4 4 0.104  -0.008  0.000 0.104  -0.008  0.164  0.002402992736811996
GM 0 0 0 0 0 0 0 8.000
GE -1
GN 2 0 0 0 11.000 0.010 
EX 0 999 1 0 1 0
FR 0 1 0 0 144.200 0
RP 0 19 37 1003 0 0 5 10.0
EN