CM
CE
GW 1 1 0.096  0.000  0.217 0.095  0.016  0.217  0.002067233973620116
GW 1 1 0.095  0.016  0.217 0.091  0.033  0.217  0.002067233973620116
GW 1 1 0.091  0.033  0.217 0.084  0.048  0.217  0.002067233973620116
GW 1 1 0.084  0.048  0.217 0.074  0.061  0.217  0.002067233973620116
GW 1 1 0.074  0.061  0.217 0.063  0.073  0.217  0.002067233973620116
GW 1 1 0.063  0.073  0.217 0.049  0.083  0.217  0.002067233973620116
GW 1 1 0.049  0.083  0.217 0.034  0.090  0.217  0.002067233973620116
GW 1 1 0.034  0.090  0.217 0.019  0.095  0.217  0.002067233973620116
GW 1 1 0.019  0.095  0.217 0.002  0.096  0.217  0.002067233973620116
GW 1 1 0.002  0.096  0.217 -0.014  0.095  0.217  0.002067233973620116
GW 1 1 -0.014  0.095  0.217 -0.031  0.091  0.217  0.002067233973620116
GW 1 1 -0.031  0.091  0.217 -0.046  0.085  0.217  0.002067233973620116
GW 1 1 -0.046  0.085  0.217 -0.060  0.076  0.217  0.002067233973620116
GW 1 1 -0.060  0.076  0.217 -0.072  0.064  0.217  0.002067233973620116
GW 1 1 -0.072  0.064  0.217 -0.082  0.051  0.217  0.002067233973620116
GW 1 1 -0.082  0.051  0.217 -0.089  0.036  0.217  0.002067233973620116
GW 1 1 -0.089  0.036  0.217 -0.094  0.021  0.217  0.002067233973620116
GW 1 1 -0.094  0.021  0.217 -0.096  0.004  0.217  0.002067233973620116
GW 1 1 -0.096  0.004  0.217 -0.096  -0.012  0.217  0.002067233973620116
GW 1 1 -0.096  -0.012  0.217 -0.092  -0.029  0.217  0.002067233973620116
GW 1 1 -0.092  -0.029  0.217 -0.086  -0.044  0.217  0.002067233973620116
GW 1 1 -0.086  -0.044  0.217 -0.077  -0.058  0.217  0.002067233973620116
GW 1 1 -0.077  -0.058  0.217 -0.066  -0.070  0.217  0.002067233973620116
GW 1 1 -0.066  -0.070  0.217 -0.053  -0.080  0.217  0.002067233973620116
GW 1 1 -0.053  -0.080  0.217 -0.038  -0.088  0.217  0.002067233973620116
GW 1 1 -0.038  -0.088  0.217 -0.023  -0.094  0.217  0.002067233973620116
GW 1 1 -0.023  -0.094  0.217 -0.006  -0.096  0.217  0.002067233973620116
GW 1 1 -0.006  -0.096  0.217 0.010  -0.096  0.217  0.002067233973620116
GW 1 1 0.010  -0.096  0.217 0.027  -0.093  0.217  0.002067233973620116
GW 1 1 0.027  -0.093  0.217 0.042  -0.087  0.217  0.002067233973620116
GW 1 1 0.042  -0.087  0.217 0.056  -0.078  0.217  0.002067233973620116
GW 1 1 0.056  -0.078  0.217 0.069  -0.067  0.217  0.002067233973620116
GW 1 1 0.069  -0.067  0.217 0.079  -0.055  0.217  0.002067233973620116
GW 1 1 0.079  -0.055  0.217 0.088  -0.040  0.217  0.002067233973620116
GW 1 1 0.088  -0.040  0.217 0.093  -0.025  0.217  0.002067233973620116
GW 999 1 0.093  -0.025  0.217 0.096  -0.008  0.217  0.002067233973620116
GW 2 1 0.096  0.000  0.000 0.095  0.016  0.000  0.002067233973620116
GW 2 1 0.095  0.016  0.000 0.091  0.033  0.000  0.002067233973620116
GW 2 1 0.091  0.033  0.000 0.084  0.048  0.000  0.002067233973620116
GW 2 1 0.084  0.048  0.000 0.074  0.061  0.000  0.002067233973620116
GW 2 1 0.074  0.061  0.000 0.063  0.073  0.000  0.002067233973620116
GW 2 1 0.063  0.073  0.000 0.049  0.083  0.000  0.002067233973620116
GW 2 1 0.049  0.083  0.000 0.034  0.090  0.000  0.002067233973620116
GW 2 1 0.034  0.090  0.000 0.019  0.095  0.000  0.002067233973620116
GW 2 1 0.019  0.095  0.000 0.002  0.096  0.000  0.002067233973620116
GW 2 1 0.002  0.096  0.000 -0.014  0.095  0.000  0.002067233973620116
GW 2 1 -0.014  0.095  0.000 -0.031  0.091  0.000  0.002067233973620116
GW 2 1 -0.031  0.091  0.000 -0.046  0.085  0.000  0.002067233973620116
GW 2 1 -0.046  0.085  0.000 -0.060  0.076  0.000  0.002067233973620116
GW 2 1 -0.060  0.076  0.000 -0.072  0.064  0.000  0.002067233973620116
GW 2 1 -0.072  0.064  0.000 -0.082  0.051  0.000  0.002067233973620116
GW 2 1 -0.082  0.051  0.000 -0.089  0.036  0.000  0.002067233973620116
GW 2 1 -0.089  0.036  0.000 -0.094  0.021  0.000  0.002067233973620116
GW 2 1 -0.094  0.021  0.000 -0.096  0.004  0.000  0.002067233973620116
GW 2 1 -0.096  0.004  0.000 -0.096  -0.012  0.000  0.002067233973620116
GW 2 1 -0.096  -0.012  0.000 -0.092  -0.029  0.000  0.002067233973620116
GW 2 1 -0.092  -0.029  0.000 -0.086  -0.044  0.000  0.002067233973620116
GW 2 1 -0.086  -0.044  0.000 -0.077  -0.058  0.000  0.002067233973620116
GW 2 1 -0.077  -0.058  0.000 -0.066  -0.070  0.000  0.002067233973620116
GW 2 1 -0.066  -0.070  0.000 -0.053  -0.080  0.000  0.002067233973620116
GW 2 1 -0.053  -0.080  0.000 -0.038  -0.088  0.000  0.002067233973620116
GW 2 1 -0.038  -0.088  0.000 -0.023  -0.094  0.000  0.002067233973620116
GW 2 1 -0.023  -0.094  0.000 -0.006  -0.096  0.000  0.002067233973620116
GW 2 1 -0.006  -0.096  0.000 0.010  -0.096  0.000  0.002067233973620116
GW 2 1 0.010  -0.096  0.000 0.027  -0.093  0.000  0.002067233973620116
GW 2 1 0.027  -0.093  0.000 0.042  -0.087  0.000  0.002067233973620116
GW 2 1 0.042  -0.087  0.000 0.056  -0.078  0.000  0.002067233973620116
GW 2 1 0.056  -0.078  0.000 0.069  -0.067  0.000  0.002067233973620116
GW 2 1 0.069  -0.067  0.000 0.079  -0.055  0.000  0.002067233973620116
GW 2 1 0.079  -0.055  0.000 0.088  -0.040  0.000  0.002067233973620116
GW 2 1 0.088  -0.040  0.000 0.093  -0.025  0.000  0.002067233973620116
GW 2 1 0.093  -0.025  0.000 0.096  -0.008  0.000  0.002067233973620116
GW 3 5 0.096  0.000  0.000 0.096  0.000  0.217  0.002067233973620116
GW 4 5 0.096  -0.008  0.000 0.096  -0.008  0.217  0.002067233973620116
GM 0 0 0 0 0 0 0 8.000
GE -1
GN 2 0 0 0 11.000 0.010 
EK
LD 5 0 0 0 58000000 0.0 0.0
EX 0 999 1 0 1 0
FR 0 1 0 0 144.200 0
RP 0 19 37 1003 0 0 5 10.0
EN