CM
CE
GW 1 2 -0.136  0.000  0.120 -0.031  0.000  0.120  0.0025
GW 999 1 -0.031  0.000  0.120 0.021  0.000  0.120  0.0025
GW 1 2 0.021  0.000  0.120 0.136  0.000  0.120  0.0025
GW 3 17 -0.133  -0.330  0.126 -0.133  -0.330  0.964  0.0025
GW 3 17 0.133  -0.330  0.126 0.133  -0.330  0.964  0.0025
GW 3 6 -0.133  -0.330  0.126 0.133  -0.330  0.126  0.0025
GW 3 1 -0.133  -0.330  0.964 0.000  -0.330  0.964  0.0025
GW 3 1 0.000  -0.330  0.964 0.133  -0.330  0.964  0.0025
GW 2 1 -0.136  0.000  0.000 -0.136  0.000  0.120  0.0025
GW 2 1 0.136  0.000  0.000 0.136  0.000  0.120  0.0025
GW 2 6 -0.136  0.000  0.000 0.136  0.000  0.000  0.0025
GW 2 1 -0.136  0.000  0.970 0.000  0.000  0.970  0.0025
GW 2 1 -0.136  0.000  0.120 -0.136  0.000  0.970  0.0025
GW 2 1 0.136  0.000  0.120 0.136  0.000  0.970  0.0025
GW 2 1 0.000  0.000  0.970 0.136  0.000  0.970  0.0025
GW 4 7 0.000  0.000  0.970 0.000  -0.330  0.964  0.0005
GM 0 0 0 0 0 0 0 8.000
GE -1
GN 2 0 0 0 11.000 0.010 
EK
EX 0 999 1 0 1 0
FR 0 1 0 0 144.200 0
RP 0 19 37 1003 0 90 5 10.0
EN