CM
CE
GW 1 9 -1.000  0.000  -0.520 -1.000  0.000  -0.052  0.005
GW 999 1 -1.000  0.000  -0.052 -1.000  0.000  0.000  0.005
GW 1 9 -1.000  0.000  0.000 -1.000  0.000  0.520  0.005
GE 0
EK
EX 0 999 1 0 1 0
FR 0 1 0 0 144.200 0
RP 0 37 37 1003 0 0 5 10.0
EN