CM
CE
GW 1 1 0.106  0.000  0.197 0.104  0.018  0.197  0.0020966772963831514
GW 1 1 0.104  0.018  0.197 0.100  0.036  0.197  0.0020966772963831514
GW 1 1 0.100  0.036  0.197 0.092  0.052  0.197  0.0020966772963831514
GW 1 1 0.092  0.052  0.197 0.082  0.067  0.197  0.0020966772963831514
GW 1 1 0.082  0.067  0.197 0.069  0.080  0.197  0.0020966772963831514
GW 1 1 0.069  0.080  0.197 0.055  0.091  0.197  0.0020966772963831514
GW 1 1 0.055  0.091  0.197 0.038  0.099  0.197  0.0020966772963831514
GW 1 1 0.038  0.099  0.197 0.021  0.104  0.197  0.0020966772963831514
GW 1 1 0.021  0.104  0.197 0.003  0.106  0.197  0.0020966772963831514
GW 1 1 0.003  0.106  0.197 -0.015  0.105  0.197  0.0020966772963831514
GW 1 1 -0.015  0.105  0.197 -0.033  0.101  0.197  0.0020966772963831514
GW 1 1 -0.033  0.101  0.197 -0.050  0.094  0.197  0.0020966772963831514
GW 1 1 -0.050  0.094  0.197 -0.065  0.084  0.197  0.0020966772963831514
GW 1 1 -0.065  0.084  0.197 -0.078  0.071  0.197  0.0020966772963831514
GW 1 1 -0.078  0.071  0.197 -0.089  0.057  0.197  0.0020966772963831514
GW 1 1 -0.089  0.057  0.197 -0.098  0.041  0.197  0.0020966772963831514
GW 1 1 -0.098  0.041  0.197 -0.103  0.024  0.197  0.0020966772963831514
GW 1 1 -0.103  0.024  0.197 -0.106  0.006  0.197  0.0020966772963831514
GW 1 1 -0.106  0.006  0.197 -0.105  -0.013  0.197  0.0020966772963831514
GW 1 1 -0.105  -0.013  0.197 -0.102  -0.030  0.197  0.0020966772963831514
GW 1 1 -0.102  -0.030  0.197 -0.095  -0.047  0.197  0.0020966772963831514
GW 1 1 -0.095  -0.047  0.197 -0.085  -0.063  0.197  0.0020966772963831514
GW 1 1 -0.085  -0.063  0.197 -0.073  -0.076  0.197  0.0020966772963831514
GW 1 1 -0.073  -0.076  0.197 -0.059  -0.088  0.197  0.0020966772963831514
GW 1 1 -0.059  -0.088  0.197 -0.043  -0.097  0.197  0.0020966772963831514
GW 1 1 -0.043  -0.097  0.197 -0.026  -0.103  0.197  0.0020966772963831514
GW 1 1 -0.026  -0.103  0.197 -0.008  -0.106  0.197  0.0020966772963831514
GW 1 1 -0.008  -0.106  0.197 0.010  -0.105  0.197  0.0020966772963831514
GW 1 1 0.010  -0.105  0.197 0.028  -0.102  0.197  0.0020966772963831514
GW 1 1 0.028  -0.102  0.197 0.045  -0.096  0.197  0.0020966772963831514
GW 1 1 0.045  -0.096  0.197 0.060  -0.087  0.197  0.0020966772963831514
GW 1 1 0.060  -0.087  0.197 0.074  -0.075  0.197  0.0020966772963831514
GW 1 1 0.074  -0.075  0.197 0.086  -0.062  0.197  0.0020966772963831514
GW 1 1 0.086  -0.062  0.197 0.095  -0.046  0.197  0.0020966772963831514
GW 1 1 0.095  -0.046  0.197 0.102  -0.029  0.197  0.0020966772963831514
GW 999 1 0.102  -0.029  0.197 0.105  -0.011  0.197  0.0020966772963831514
GW 2 1 0.106  0.000  0.000 0.104  0.018  0.000  0.0020966772963831514
GW 2 1 0.104  0.018  0.000 0.100  0.036  0.000  0.0020966772963831514
GW 2 1 0.100  0.036  0.000 0.092  0.052  0.000  0.0020966772963831514
GW 2 1 0.092  0.052  0.000 0.082  0.067  0.000  0.0020966772963831514
GW 2 1 0.082  0.067  0.000 0.069  0.080  0.000  0.0020966772963831514
GW 2 1 0.069  0.080  0.000 0.055  0.091  0.000  0.0020966772963831514
GW 2 1 0.055  0.091  0.000 0.038  0.099  0.000  0.0020966772963831514
GW 2 1 0.038  0.099  0.000 0.021  0.104  0.000  0.0020966772963831514
GW 2 1 0.021  0.104  0.000 0.003  0.106  0.000  0.0020966772963831514
GW 2 1 0.003  0.106  0.000 -0.015  0.105  0.000  0.0020966772963831514
GW 2 1 -0.015  0.105  0.000 -0.033  0.101  0.000  0.0020966772963831514
GW 2 1 -0.033  0.101  0.000 -0.050  0.094  0.000  0.0020966772963831514
GW 2 1 -0.050  0.094  0.000 -0.065  0.084  0.000  0.0020966772963831514
GW 2 1 -0.065  0.084  0.000 -0.078  0.071  0.000  0.0020966772963831514
GW 2 1 -0.078  0.071  0.000 -0.089  0.057  0.000  0.0020966772963831514
GW 2 1 -0.089  0.057  0.000 -0.098  0.041  0.000  0.0020966772963831514
GW 2 1 -0.098  0.041  0.000 -0.103  0.024  0.000  0.0020966772963831514
GW 2 1 -0.103  0.024  0.000 -0.106  0.006  0.000  0.0020966772963831514
GW 2 1 -0.106  0.006  0.000 -0.105  -0.013  0.000  0.0020966772963831514
GW 2 1 -0.105  -0.013  0.000 -0.102  -0.030  0.000  0.0020966772963831514
GW 2 1 -0.102  -0.030  0.000 -0.095  -0.047  0.000  0.0020966772963831514
GW 2 1 -0.095  -0.047  0.000 -0.085  -0.063  0.000  0.0020966772963831514
GW 2 1 -0.085  -0.063  0.000 -0.073  -0.076  0.000  0.0020966772963831514
GW 2 1 -0.073  -0.076  0.000 -0.059  -0.088  0.000  0.0020966772963831514
GW 2 1 -0.059  -0.088  0.000 -0.043  -0.097  0.000  0.0020966772963831514
GW 2 1 -0.043  -0.097  0.000 -0.026  -0.103  0.000  0.0020966772963831514
GW 2 1 -0.026  -0.103  0.000 -0.008  -0.106  0.000  0.0020966772963831514
GW 2 1 -0.008  -0.106  0.000 0.010  -0.105  0.000  0.0020966772963831514
GW 2 1 0.010  -0.105  0.000 0.028  -0.102  0.000  0.0020966772963831514
GW 2 1 0.028  -0.102  0.000 0.045  -0.096  0.000  0.0020966772963831514
GW 2 1 0.045  -0.096  0.000 0.060  -0.087  0.000  0.0020966772963831514
GW 2 1 0.060  -0.087  0.000 0.074  -0.075  0.000  0.0020966772963831514
GW 2 1 0.074  -0.075  0.000 0.086  -0.062  0.000  0.0020966772963831514
GW 2 1 0.086  -0.062  0.000 0.095  -0.046  0.000  0.0020966772963831514
GW 2 1 0.095  -0.046  0.000 0.102  -0.029  0.000  0.0020966772963831514
GW 2 1 0.102  -0.029  0.000 0.105  -0.011  0.000  0.0020966772963831514
GW 3 4 0.106  0.000  0.000 0.106  0.000  0.197  0.0020966772963831514
GW 4 4 0.105  -0.011  0.000 0.105  -0.011  0.197  0.0020966772963831514
GM 0 0 0 0 0 0 0 8.000
GE -1
GN 2 0 0 0 11.000 0.010 
EK
EX 0 999 1 0 1 0
FR 0 1 0 0 144.200 0
RP 0 19 37 1003 0 0 5 10.0
EN